units          metal
atom_style     atomic
boundary       p p p

package kokkos newton on neigh half
package kokkos comm device

read_data      structure.data
Reading data file ...
  orthogonal box = (0 0 0) to (203.01 203.01 203.01)
  reading atoms ...
  601526 atoms

# Potential setup
mass 1 47.867  # Ti
mass 2 50.942  # V
mass 3 51.996  # Cr
mass 4 91.224  # Zr
mass 5 183.84  # W

pair_style allegro
#pair_coeff * * ./potentials/r5_l0_nl2_ntf128_zbl_gen_6.pth Ti V Cr Zr W
#pair_coeff * * ./potentials/r5_l2_nl1_ntf32_zbl_gen_6.pth Ti V Cr Zr W
#pair_coeff * * ./potentials/r6_l2_nl1_ntf32_zbl_gen_6.pth Ti V Cr Zr W
pair_coeff * * ../potentials/gen-7-2025-04-30/gen-7-50epoch-test_compiled.nequip.pt2 Ti V Cr Zr W

neighbor        2.0 bin
neigh_modify    every 1 delay 0 check yes

# Multi-GPU domain decomposition settings
comm_style brick
balance 1.0 shift xyz 10 1.1
Balancing ...
 rebalancing time: 0.068 seconds
  iteration count = 5
  initial/final maximal load/proc = 1241 1241
  initial/final imbalance factor  = 1.0563001 1.0563001
  x cuts: 0 0.12109375 0.24609375 0.37109375 0.5 0.62109375 0.74609375 0.87109375 1
  y cuts: 0 0.125 0.25 0.375 0.5 0.625 0.75 0.875 1
  z cuts: 0 0.125 0.25 0.375 0.5 0.625 0.75 0.875 1

velocity        all create 300 4928459 dist gaussian
fix             1 all nve

# GPU memory usage info
#info all out gpu_memory_initial.txt
run             0

CITE-CITE-CITE-CITE-CITE-CITE-CITE-CITE-CITE-CITE-CITE-CITE-CITE

Your simulation uses code contributions which should be cited:

- Type Label Framework: https://doi.org/10.1021/acs.jpcb.3c08419

@Article{Gissinger24,
 author = {Jacob R. Gissinger, Ilia Nikiforov, Yaser Afshar, Brendon Waters, Moon-ki Choi, Daniel S. Karls, Alexander Stukowski, Wonpil Im, Hendrik Heinz, Axel Kohlmeyer, and Ellad B. Tadmor},
 title = {Type Label Framework for Bonded Force Fields in LAMMPS},
 journal = {J. Phys. Chem. B},
 year =    2024,
 volume =  128,
 number =  13,
 pages =   {3282â€“-3297}
}

CITE-CITE-CITE-CITE-CITE-CITE-CITE-CITE-CITE-CITE-CITE-CITE-CITE

Step          Temp          E_pair         E_mol          TotEng         Press
0   300           -5625674.7      0             -5602348.7     -4958.3307
Loop time of 0.000341417 on 512 procs for 0 steps with 601526 atoms

thermo_style    custom step temp pe ke etotal press
thermo          100

timestep        0.001
run             1000
Step          Temp          PotEng         KinEng         TotEng         Press
0   300           -5625674.7      23325.963     -5602348.7     -4958.3306
Averages over the last 6 of 11 rows, steps 500 to 1000:
Temp PotEng KinEng TotEng Press
327.368 -5.6278e+06 25453.9 -5.60235e+06 69159.4
Loop time of 21.2502 on 512 procs for 1000 steps with 601526 atoms

#info all out gpu_memory_final.txt
