units          metal
atom_style     atomic
boundary       p p p

package kokkos newton on neigh full
package kokkos comm device

read_data      structure.data
Reading data file ...
  orthogonal box = (0 0 0) to (121.2 121.2 121.2)
  reading atoms ...
  128000 atoms

# Potential setup
mass 1 47.867  # Ti
mass 2 50.942  # V
mass 3 51.996  # Cr
mass 4 91.224  # Zr
mass 5 183.84  # W

pair_style allegro3232/kk
#pair_coeff * * ./potentials/r5_l0_nl2_ntf128_zbl_gen_6.pth Ti V Cr Zr W
pair_coeff * * ./potentials/r5_l2_nl1_ntf32_zbl_gen_6.pth Ti V Cr Zr W
#pair_coeff * * ./potentials/r6_l2_nl1_ntf32_zbl_gen_6.pth Ti V Cr Zr W

neighbor        2.0 bin
neigh_modify    every 1 delay 0 check yes

# Multi-GPU domain decomposition settings
comm_style brick
balance 1.0 shift xyz 10 1.1
Balancing ...
 rebalancing time: 0.050 seconds
  iteration count = 1
  initial/final maximal load/proc = 2000 2000
  initial/final imbalance factor  = 1 1
  x cuts: 0 0.25 0.5 0.75 1
  y cuts: 0 0.25 0.5 0.75 1
  z cuts: 0 0.25 0.5 0.75 1

velocity        all create 300 4928459 dist gaussian
fix             1 all nve

# GPU memory usage info
#info all out gpu_memory_initial.txt
run             0

CITE-CITE-CITE-CITE-CITE-CITE-CITE-CITE-CITE-CITE-CITE-CITE-CITE

Your simulation uses code contributions which should be cited:

- Type Label Framework: https://doi.org/10.1021/acs.jpcb.3c08419

@Article{Gissinger24,
 author = {Jacob R. Gissinger, Ilia Nikiforov, Yaser Afshar, Brendon Waters, Moon-ki Choi, Daniel S. Karls, Alexander Stukowski, Wonpil Im, Hendrik Heinz, Axel Kohlmeyer, and Ellad B. Tadmor},
 title = {Type Label Framework for Bonded Force Fields in LAMMPS},
 journal = {J. Phys. Chem. B},
 year =    2024,
 volume =  128,
 number =  13,
 pages =   {3282â€“-3297}
}

CITE-CITE-CITE-CITE-CITE-CITE-CITE-CITE-CITE-CITE-CITE-CITE-CITE

Step          Temp          E_pair         E_mol          TotEng         Press
0   300           -1200851.7      0             -1195888.2     -222147.64
Loop time of 0.000300633 on 64 procs for 0 steps with 128000 atoms

thermo_style    custom step temp pe ke etotal press
thermo          100

timestep        0.001
run             1000
Step          Temp          PotEng         KinEng         TotEng         Press
0   300           -1200851.7      4963.5508     -1195888.2     -222148.06
Averages over the last 6 of 11 rows, steps 500 to 1000:
Temp PotEng KinEng TotEng Press
396.606 -1.20245e+06 6561.92 -1.19589e+06 -147769
Loop time of 80.704 on 64 procs for 1000 steps with 128000 atoms

#info all out gpu_memory_final.txt
